7
generated by VMD
C         0.000000       -0.003593       -2.101487
O         0.000000        0.057641        2.312260
Br        0.000000        0.000236       -0.085910
H         0.000000        1.026023       -2.458696
H         0.000000       -0.881485        2.527770
H         0.891556       -0.517678       -2.459920
H        -0.891556       -0.517678       -2.459920