7
 generated by VMD
 C        -0.625716        0.000000        2.645911
 O         0.713748        0.000000        2.213091
 Br       -0.019999        0.000000       -0.961510
 H        -0.623469        0.000000        3.739067
 H         0.675142        0.000000        1.233956
 H        -1.169801        0.884045        2.295692
 H        -1.169801       -0.884045        2.295692
