7
 generated by VMD
C         0.000000        0.041782        1.141842
O         0.000000       -0.073528        3.503196
Br        0.000000       -0.003320       -0.974600
H         0.000000       -0.999860        1.406860
H         0.000000        0.798365        3.914057
H         0.910895        0.566965        1.362954
H        -0.910895        0.566965        1.362954