16

 C     2.000000     0.000000     0.000000
 C     2.000000     0.000000     1.335000
 H     2.000000     0.943102    -0.544500
 H     2.000000    -0.943102    -0.544500
 H     2.000000     0.943102     1.879500
 H     2.000000    -0.943102     1.879500
 C    -2.156144     0.000000    -0.667500
 C    -3.000000     0.000000     0.000000
 C    -3.000000     0.000000     1.450000
 C    -2.156144     0.000000     2.117500
 H    -2.156144     0.000000    -1.756500
 H    -1.099246     0.000000    -0.123000
 H    -3.943102     0.000000    -0.544500
 H    -3.943102     0.000000     1.994500
 H    -2.156144     0.000000     3.206500
 H    -1.099246     0.000000     1.573000
